/*--------------------------------*- C++ -*----------------------------------*\
| =========                 |                                                 |
| \\      /  F ield         | OpenFOAM: The Open Source CFD Toolbox           |
|  \\    /   O peration     | Version:  5                                     |
|   \\  /    A nd           | Web:      www.OpenFOAM.org                      |
|    \\/     M anipulation  |                                                 |
\*---------------------------------------------------------------------------*/
FoamFile
{
    version     2.0;
    format      ascii;
    class       dictionary;
    object      changeDictionaryDict;
}
// * * * * * * * * * * * * * * * * * * * * * * * * * * * * * * * * * * * * * //

boundary
{
    "(lawns|grass|water)"
    {
        type            wall;
		physicalType    wall;
    }
	
	"(roofs|walls)"
	{
        type            wall;
		physicalType    wall;
    }
	
	external
    {
        type            wall;
		physicalType    wall;
    }
	
	".*St"
    {
        type            wall;
		physicalType    wall;
    }
	
	"(north|east|south|west)"
	{
		type            patch;
        physicalType    patch;
	}
	
	atmosphere
	{
		type            symmetry;
        physicalType    symmetry;
	}
}

/*
T
{
    internalField   uniform 300;

    boundaryField
    {
        ".*"
        {
            type            zeroGradient;
        }

        minY
        {
            type            fixedValue;
            value           uniform 500;
        }
    }
}

rho
{
    internalField   uniform 8000;

    boundaryField
    {
        ".*"
        {
            type            zeroGradient;
        }

    }
}

K
{
    internalField   uniform 80;

    boundaryField
    {
        ".*"
        {
            type            zeroGradient;
        }

    }
}

cp
{
    internalField   uniform 450;

    boundaryField
    {
        ".*"
        {
            type            zeroGradient;
        }

    }
}
*/

// ************************************************************************* //
