/*--------------------------------*- C++ -*----------------------------------*\
| =========                 |                                                 |
| \\      /  F ield         | OpenFOAM: The Open Source CFD Toolbox           |
|  \\    /   O peration     | Version:  5.x                                   |
|   \\  /    A nd           | Web:      www.OpenFOAM.org                      |
|    \\/     M anipulation  |                                                 |
\*---------------------------------------------------------------------------*/
FoamFile
{
    version     2.0;
    format      binary;
    class       volScalarField;
    location    "0";
    object      epsilon;
}
// * * * * * * * * * * * * * * * * * * * * * * * * * * * * * * * * * * * * * //

dimensions      [0 2 -3 0 0 0 0];

epsilonInlet	3.58e-6;

internalField   uniform $epsilonInlet;

boundaryField
{
    "(lawns|grass|water)"
    {
        type            epsilonWallFunction;
        value           uniform $epsilonInlet;
    }
	
	"(roofs|walls)"
	{
        type            epsilonWallFunction;
        value           uniform $epsilonInlet;
    }
	
	external
    {
        type            epsilonWallFunction;
        value           uniform $epsilonInlet;
    }
	
	".*St"
    {
        type            epsilonWallFunction;
        value           uniform $epsilonInlet;
    }
	
	"(west|north)"
	{
		type            zeroGradient;
	}
	
	"(east|south)"
	{
		type           	atmBoundaryLayerInletEpsilon;
        value		uniform $epsilonInlet;
		include "includes/ABLConditions";
	}
	
	atmosphere
	{
		type            symmetry;
	}
    
    #includeEtc "caseDicts/setConstraintTypes"
}


// ************************************************************************* //
