/*--------------------------------*- C++ -*----------------------------------*\
| =========                 |                                                 |
| \\      /  F ield         | OpenFOAM: The Open Source CFD Toolbox           |
|  \\    /   O peration     | Version:  5.x                                   |
|   \\  /    A nd           | Web:      www.OpenFOAM.org                      |
|    \\/     M anipulation  |                                                 |
\*---------------------------------------------------------------------------*/
FoamFile
{
    version     2.0;
    format      binary;
    class       volScalarField;
    location    "0";
    object      nut;
}
// * * * * * * * * * * * * * * * * * * * * * * * * * * * * * * * * * * * * * //

dimensions      [0 2 -1 0 0 0 0];

internalField   uniform 0;

boundaryField
{
    "(lawns|grass)"
    {
        type            nutkWallFunction;
        value           uniform 0.03;
    }

	water
	{
		type            nutkWallFunction;
        	value           uniform 0.0002;
	}
	
	"(roofs|walls)"
	{
	type            nutkWallFunction;
	value           uniform 0;
    	}
	
	external
    {
        type            nutkAtmRoughWallFunction;
        z0		uniform 1.0;
		value		uniform 0;
    }
	
	".*St"
    {
        type            nutkWallFunction;
        value           uniform 0;
    }
	
	"(west|north)"
	{
		type            zeroGradient;
	}
	
	"(east|south)"
	{
		type            calculated;
        value           uniform 0;
	}
	
	atmosphere
	{
		type            symmetry;
	}
	
    #includeEtc "caseDicts/setConstraintTypes"
}


// ************************************************************************* //
