/*--------------------------------*- C++ -*----------------------------------*\
| =========                 |                                                 |
| \\      /  F ield         | OpenFOAM: The Open Source CFD Toolbox           |
|  \\    /   O peration     | Version:  5.x                                   |
|   \\  /    A nd           | Web:      www.OpenFOAM.org                      |
|    \\/     M anipulation  |                                                 |
\*---------------------------------------------------------------------------*/
FoamFile
{
    version     2.0;
    format      binary;
    class       volScalarField;
    location    "0";
    object      Uz;
}
// * * * * * * * * * * * * * * * * * * * * * * * * * * * * * * * * * * * * * //

dimensions      [0 1 -1 0 0 0 0];

internalField   uniform 0;

boundaryField
{
    lawns
    {
        type            calculated;
        value           uniform 0;
    }
    RanchHouseSt
    {
        type            calculated;
        value           uniform 0;
    }
    MarshallSt
    {
        type            calculated;
        value           uniform 0;
    }
    ArrowHeadSt
    {
        type            calculated;
        value           uniform 0;
    }
    DesperadoSt
    {
        type            calculated;
        value           uniform 0;
    }
    LanternSt
    {
        type            calculated;
        value           uniform 0;
    }
    IronhorseSt
    {
        type            calculated;
        value           uniform 0;
    }
    RimSt
    {
        type            calculated;
        value           uniform 0;
    }
    MaverickSt
    {
        type            calculated;
        value           uniform 0;
    }
    SpringSt
    {
        type            calculated;
        value           uniform 0;
    }
    RainbowSt
    {
        type            calculated;
        value           uniform 0;
    }
    ShadySt
    {
        type            calculated;
        value           uniform 0;
    }
    CloudburstSt
    {
        type            calculated;
        value           uniform 0;
    }
    CavalrySt
    {
        type            calculated;
        value           uniform 0;
    }
    PosseSt
    {
        type            calculated;
        value           uniform 0;
    }
    TimberlineSt
    {
        type            calculated;
        value           uniform 0;
    }
    roofs
    {
        type            calculated;
        value           uniform 0;
    }
    atmosphere
    {
        type            symmetry;
    }
    grass
    {
        type            calculated;
        value           uniform 0;
    }
    water
    {
        type            calculated;
        value           uniform 0;
    }
    HavenCrestSt
    {
        type            calculated;
        value           uniform 0;
    }
    SchoolParkingSt
    {
        type            calculated;
        value           uniform 0;
    }
    ReinsSt
    {
        type            calculated;
        value           uniform 0;
    }
    WinterSt
    {
        type            calculated;
        value           uniform 0;
    }
    SnowcapSt
    {
        type            calculated;
        value           uniform 0;
    }
    external
    {
        type            calculated;
        value           uniform 0;
    }
    walls
    {
        type            calculated;
        value           uniform 0;
    }
    north
    {
        type            calculated;
        value           uniform 0;
    }
    east
    {
        type            calculated;
        value           uniform 0;
    }
    south
    {
        type            calculated;
        value           uniform 0;
    }
    west
    {
        type            calculated;
        value           uniform 0;
    }
}


// ************************************************************************* //
